* Path, Component, Release: bicmos8hp/rel/Spectre/models/coupledcpw.scs, bc8hp_models, mod_bicmos8hp
* CMVC Revision: 1.5 12/10/29 09:38:14
*
*>  IBM bicmos8hp "coupledcpw" line model
* 
***************************************************************************
*
*   Licensed Materials - Property of IBM
*
*   IBM CONFIDENTIAL
*   (C) 2012 IBM Corporation
*
*   US Government Users Restricted Rights - Use, duplication
*   or disclosure restricted by GSA ADP Schedule contract with
*   IBM Corporation.
*
***************************************************************************
simulator lang=spectre
subckt coupledcpw (va1 va2 vb1 vb2 vshield)
parameters 
*
* The basic coupled coplanar T-Line structure is
* two metal signal wires of the width W between two coplanar ground wires 
* of the width Ws = W (return path wires), above the silicon substrate. 
* All metal levels are supported for the coplanar lines usage.
*
* Coupled coplanar T-line cross section
* =====================================
*
*  XXXXXXXXXXXXXXXXXXXXXXXXXXXXXXXXXXXXXXXXXXXXXXXXXXXX  Crossover (optional)
*
*       Ws          W            W            Ws
*    <------>    <------>     <------>    <------>
*     ------      ------       ______      ------  
*    |Return|  s |      |  d  |      |  s |Return|
*    | path |<-->|Signal|<--->|Signal|<-->| path |     Signal Layer
*    |      |    |      |     |      |    |      |
*     ------      ------       ------      ------
*
*  XXXXXXXXXXXXXXXXXXXXXXXXXXXXXXXXXXXXXXXXXXXXXXXXXXXX  Crossunder (optional)
*
*  --------------------------------------------------------
*  ///////////////// SILICON  SUBSTRATE ///////////////////
*  ////////////////////////////////////////////////////////
*
* This model describes the frequency dependent impedance,
* attenuation and phase shift in a high bandwidth.
* The model considers the  skin and proximity effects in the signal wire
* plus coplanar return path wires.
* The model considers the conductive silicon substrate effect on both
* the signal attenuation and capacitance (frequency dependent capacitance).
* The model is implemented in multi-segment RLC filter networks
* and is passive by construction.
* The model works both in time and frequency domains in all
* simulation analysis types (dc, ac, sp, pss ...)
*
* The model considers the
* standard copper line cheesing process, and
* assumes super cheesing for Wg > 50[um].
*
* The T-line shielding should be connected 
* in the given design in a manner which allows the return path
* current to flow through them.
* T-line Pcells can be connected to form bends/junctions,
* provided that the bends/junctions are shielded in the same manner
* as these T-lines are. In most practical cases, such shielded bends/junctions
* have much smaller effect than the T-lines themselves.
*
* The model considers multi-layer dielectric structure
* and allows to consider the pattern metal fill.
* ===============================================
* coupledcpw input parameters 
*
* bwmax           --> Maximum signal bandwidth used, in GHz.
* l               --> Length of the coupledcpw signal lines, in meters.
* w               --> Width of the coupledcpw signal lines, in meters.
* s               --> Seperation between coupledcpw signal wire and adjacent return path wire, in meters.
* d               --> distance between the two coupled signal wires 
* layer_sig       --> Metal layer of the coupledcpw signal wire:  See table immediately below.  
* crosstype       --> crossing type:  0="full plane" and 1="custom"
* plane           --> crossing condition:  0="none", 1="above", 2="below", 3="both"
* layer_bot       --> Metal layer of crossunder:  See table immmediately below.
* layer_top       --> Metal layer of crossover:  See table immmediately below.
* crosscapfactor  --> Crossing Capacitance Factor, which estimates the impact of crossing lines:  0<=crosscapfactor<=1 
* patternfill     --> 0 disables pattern fill modeling, 1 enables it.
* siliconlosses   --> Enables modeling of silicon loss for custom capacitance case.
* C_cust          --> User provided capacitance per unit length.
* Cc_cust         --> User provided coupling capacitance per unit length.
*
* NOTES:
*
*             wireopt
*  5AM               | layer -> XXXX M2=2 XXXX XXXX MQ=5 LY=6 AM=7
*              211   | over  -> M1=1 M2=2 XXXX XXXX MQ=5 LY=6 XXXX
*                 ---------------------------------------------------
*  6AM               | layer -> XXXX M2=2 M3=3 XXXX MQ=5 LY=6 AM=7
*              311   | over  -> M1=1 M2=2 M3=3 XXXX MQ=5 LY=6 XXXX
*                 ---------------------------------------------------
*  7AM               | layer -> XXXX M2=2 M3=3 M4=4 MQ=5 LY=6 AM=7
*              411   | over  -> M1=1 M2=2 M3=3 M4=4 MQ=5 LY=6 XXXX
*                 ---------------------------------------------------
*  6DM               | layer -> XXXX M2=2 XXXX XXXX MQ=5 LY=6 E1=8 MA=9
*              213   | over  -> M1=1 M2=2 XXXX XXXX MQ=5 LY=6 E1=8 XXXX
*               --------------------------------------------------------
*  7DM               | layer -> XXXX M2=2 M3=3 XXXX MQ=5 LY=6 E1=8 MA=9
*              313   | over  -> M1=1 M2=2 M3=3 XXXX MQ=5 LY=6 E1=8 XXXX
*               --------------------------------------------------------
*  8DM               | layer -> XXXX M2=2 M3=3 M4=4 MQ=5 LY=6 E1=8 MA=9
*              413   | over  -> M1=1 M2=2 M3=3 M4=4 MQ=5 LY=6 E1=8 XXXX
*               --------------------------------------------------------
*
* coupledcpw default input parameters
+ bwmax          = 40
+ l              = 100.0e-6
+ w              = 4.0e-6
+ s              = 6.0e-6
+ d              = 6.0e-6
+ patternfill    = 1
+ layer_sig      = 2
+ crosstype      = 0
+ plane          = 0
+ layer_bot      = 1
+ layer_top      = 5
+ crosscapfactor = 1
+ siliconlosses  = 0
+ C_cust         = 1.0e-10
+ Cc_cust        = 1.0e-10
* ===============================================
* coupledcpw model constants
+ ratio     = 3.14159
+ E0        = 8.8542e-12
+ Epsilon_s = 11.9
+ denfill   = 0.45
+ Tref      = 25.0
* ===============================================
* Conversion of Meters to Microns for input parameters
+ l_MICRONS = l*1.0e+6
+ w_MICRONS = w*1.0e+6
+ s_MICRONS = s*1.0e+6
+ d_MICRONS = d*1.0e+6
* ===============================================
* Begin COMMON
*
* Begin metal layer stack
*
+ si_top = 0.0
*
* Metal Option: wireopt = 211 (5AM)
+ am5    = wireopt==211
+ m1bot1 = 0.95e-06
+ m1top1 = m1bot1 + m1t
+ m2bot1 = m1top1 + m1m2t
+ m2top1 = m2bot1 + m2t
+ mqbot1 = m2top1 + m2mqt
+ mqtop1 = mqbot1 + mqt
+ lybot1 = mqtop1 + mqlyt
+ lytop1 = lybot1 + lyt
+ ambot1 = lytop1 + lyamt
+ amtop1 = ambot1 + amt
*
* Metal Option: wireopt = 311 (6AM)
+ am6    = wireopt==311
+ m1bot2 = 0.95e-06
+ m1top2 = m1bot2 + m1t
+ m2bot2 = m1top2 + m1m2t
+ m2top2 = m2bot2 + m2t
+ m3bot2 = m2top2 + m2m3t
+ m3top2 = m3bot2 + m3t
+ mqbot2 = m3top2 + m3mqt
+ mqtop2 = mqbot2 + mqt
+ lybot2 = mqtop2 + mqlyt
+ lytop2 = lybot2 + lyt
+ ambot2 = lytop2 + lyamt
+ amtop2 = ambot2 + amt
*
* Metal Option: wireopt = 411 (7AM)
+ am7    = wireopt==411
+ m1bot3 = 0.95e-06
+ m1top3 = m1bot3 + m1t
+ m2bot3 = m1top3 + m1m2t
+ m2top3 = m2bot3 + m2t
+ m3bot3 = m2top3 + m2m3t
+ m3top3 = m3bot3 + m3t
+ m4bot3 = m3top3 + m3m4t
+ m4top3 = m4bot3 + m4t
+ mqbot3 = m4top3 + m4mqt
+ mqtop3 = mqbot3 + mqt
+ lybot3 = mqtop3 + mqlyt
+ lytop3 = lybot3 + lyt
+ ambot3 = lytop3 + lyamt
+ amtop3 = ambot3 + amt
*
* Metal Option: wireopt = 213 (6DM)
+ dm6    = wireopt==213
+ m1bot4 = 0.95e-06
+ m1top4 = m1bot4 + m1t
+ m2bot4 = m1top4 + m1m2t
+ m2top4 = m2bot4 + m2t
+ mqbot4 = m2top4 + m2mqt
+ mqtop4 = mqbot4 + mqt
+ lybot4 = mqtop4 + mqlyt
+ lytop4 = lybot4 + lyt
+ e1bot4 = lytop4 + lye1t
+ e1top4 = e1bot4 + e1t
+ mabot4 = e1top4 + e1mat
+ matop4 = mabot4 + mat
*
* Metal Option: wireopt = 313 (7DM)
+ dm7    = wireopt==313
+ m1bot5 = 0.95e-06
+ m1top5 = m1bot5 + m1t
+ m2bot5 = m1top5 + m1m2t
+ m2top5 = m2bot5 + m2t
+ m3bot5 = m2top5 + m2m3t
+ m3top5 = m3bot5 + m3t
+ mqbot5 = m3top5 + m3mqt
+ mqtop5 = mqbot5 + mqt
+ lybot5 = mqtop5 + mqlyt
+ lytop5 = lybot5 + lyt
+ e1bot5 = lytop5 + lye1t
+ e1top5 = e1bot5 + e1t
+ mabot5 = e1top5 + e1mat
+ matop5 = mabot5 + mat
*
* Metal Option: wireopt = 413 (8DM)
+ dm8    = wireopt==413
+ m1bot6 = 0.95e-06
+ m1top6 = m1bot6 + m1t
+ m2bot6 = m1top6 + m1m2t
+ m2top6 = m2bot6 + m2t
+ m3bot6 = m2top6 + m2m3t
+ m3top6 = m3bot6 + m3t
+ m4bot6 = m3top6 + m3m4t
+ m4top6 = m4bot6 + m4t
+ mqbot6 = m4top6 + m4mqt
+ mqtop6 = mqbot6 + mqt
+ lybot6 = mqtop6 + mqlyt
+ lytop6 = lybot6 + lyt
+ e1bot6 = lytop6 + lye1t
+ e1top6 = e1bot6 + e1t
+ mabot6 = e1top6 + e1mat
+ matop6 = mabot6 + mat
*
+ m1bot = (m1bot1*am5 + m1bot2*am6 + m1bot3*am7 + m1bot4*dm6 + m1bot5*dm7 + m1bot6*dm8)*1.0e06
+ m1top = (m1top1*am5 + m1top2*am6 + m1top3*am7 + m1top4*dm6 + m1top5*dm7 + m1top6*dm8)*1.0e06
+ m2bot = (m2bot1*am5 + m2bot2*am6 + m2bot3*am7 + m2bot4*dm6 + m2bot5*dm7 + m2bot6*dm8)*1.0e06
+ m2top = (m2top1*am5 + m2top2*am6 + m2top3*am7 + m2top4*dm6 + m2top5*dm7 + m2top6*dm8)*1.0e06
+ m3bot = (   0.0*am5 + m3bot2*am6 + m3bot3*am7 +    0.0*dm6 + m3bot5*dm7 + m3bot6*dm8)*1.0e06
+ m3top = (   0.0*am5 + m3top2*am6 + m3top3*am7 +    0.0*dm6 + m3top5*dm7 + m3top6*dm8)*1.0e06
+ m4bot = (   0.0*am5 +    0.0*am6 + m4bot3*am7 +    0.0*dm6 +    0.0*dm7 + m4bot6*dm8)*1.0e06
+ m4top = (   0.0*am5 +    0.0*am6 + m4top3*am7 +    0.0*dm6 +    0.0*dm7 + m4top6*dm8)*1.0e06
+ mqbot = (mqbot1*am5 + mqbot2*am6 + mqbot3*am7 + mqbot4*dm6 + mqbot5*dm7 + mqbot6*dm8)*1.0e06
+ mqtop = (mqtop1*am5 + mqtop2*am6 + mqtop3*am7 + mqtop4*dm6 + mqtop5*dm7 + mqtop6*dm8)*1.0e06
+ lybot = (lybot1*am5 + lybot2*am6 + lybot3*am7 + lybot4*dm6 + lybot5*dm7 + lybot6*dm8)*1.0e06
+ lytop = (lytop1*am5 + lytop2*am6 + lytop3*am7 + lytop4*dm6 + lytop5*dm7 + lytop6*dm8)*1.0e06
+ ambot = (ambot1*am5 + ambot2*am6 + ambot3*am7)*1.0e06
+ amtop = (amtop1*am5 + amtop2*am6 + amtop3*am7)*1.0e06
+ e1bot =                                        (e1bot4*dm6 + e1bot5*dm7 + e1bot6*dm8)*1.0e06
+ e1top =                                        (e1top4*dm6 + e1top5*dm7 + e1top6*dm8)*1.0e06
+ mabot =                                        (mabot4*dm6 + mabot5*dm7 + mabot6*dm8)*1.0e06
+ matop =                                        (matop4*dm6 + matop5*dm7 + matop6*dm8)*1.0e06
*
* End metal layer stack
* ================================================
* Determine the effective dielectric constants and metal fill parameters.
*
+ m1_eps_side = 4.078
+ m2_eps_side = 3.6
+ m3_eps_side = 3.6
+ m4_eps_side = 3.6
+ mq_eps_side = 3.6
+ ly_eps_side = 4.1
+ am_eps_side = 4.1
+ e1_eps_side = 4.1
+ ma_eps_side = 4.1
*	
+ m1_eps_side_over = 4.47*am5 + 4.47*am6 + 4.47*am7 + 4.47*dm6 + 4.47*dm7 + 4.47*dm8
+ m2_eps_side_over = 4.59*am5 + 4.47*am6 + 4.47*am7 + 4.59*dm6 + 4.47*dm7 + 4.47*dm8
+ m3_eps_side_over = 4.47*am5 + 4.59*am6 + 4.47*am7 + 4.47*dm6 + 4.59*dm7 + 4.47*dm8
+ m4_eps_side_over = 4.59*am5 + 4.59*am6 + 4.59*am7 + 4.59*dm6 + 4.59*dm7 + 4.59*dm8
+ mq_eps_side_over = 4.13*am5 + 4.13*am6 + 4.13*am7 + 4.13*dm6 + 4.13*dm7 + 4.13*dm8
+ ly_eps_side_over = 4.13*am5 + 4.13*am6 + 4.13*am7 + 4.14*dm6 + 4.14*dm7 + 4.14*dm8
+ am_eps_side_over = 3.81*am5 + 3.81*am6 + 3.81*am7
+ e1_eps_side_over =                                  4.13*dm6 + 4.13*dm7 + 4.13*dm8
+ ma_eps_side_over =                                  3.81*dm6 + 3.81*dm7 + 3.81*dm8
*
+ m1_bot_4eps = 0.2267*am5 + 0.2267*am6 + 0.2267*am7 + 0.2267*dm6 + 0.2267*dm7 + 0.2267*dm8
+ m1_top_4eps = 0.3035*am5 + 0.3035*am6 + 0.3035*am7 + 0.3035*dm6 + 0.3035*dm7 + 0.3035*dm8
+ m2_bot_4eps = 0.3858*am5 + 0.3858*am6 + 0.3858*am7 + 0.3858*dm6 + 0.3858*dm7 + 0.3858*dm8
+ m2_top_4eps = 0.4747*am5 + 0.4747*am6 + 0.4747*am7 + 0.4747*dm6 + 0.4747*dm7 + 0.4747*dm8
+ m3_bot_4eps = 0.0000*am5 + 0.5571*am6 + 0.5571*am7 + 0.0000*dm6 + 0.5571*dm7 + 0.5571*dm8
+ m3_top_4eps = 0.0000*am5 + 0.6460*am6 + 0.6460*am7 + 0.0000*dm6 + 0.6460*dm7 + 0.6460*dm8
+ m4_bot_4eps = 0.0000*am5 + 0.0000*am6 + 0.7283*am7 + 0.0000*dm6 + 0.0000*dm7 + 0.7283*dm8
+ m4_top_4eps = 0.0000*am5 + 0.0000*am6 + 0.8172*am7 + 0.0000*dm6 + 0.0000*dm7 + 0.8172*dm8
+ mq_bot_4eps = 0.6404*am5 + 0.8117*am6 + 0.9829*am7 + 0.6404*dm6 + 0.8117*dm7 + 0.9829*dm8
+ mq_top_4eps = 0.7932*am5 + 0.9644*am6 + 1.1357*am7 + 0.7932*dm6 + 0.9644*dm7 + 1.1357*dm8
+ ly_bot_4eps = 1.7861*am5 + 1.9574*am6 + 2.1286*am7 + 1.7861*dm6 + 1.9574*dm7 + 2.1286*dm8
+ ly_top_4eps = 2.0910*am5 + 2.2622*am6 + 2.4335*am7 + 2.0910*dm6 + 2.2622*dm7 + 2.4335*dm8
+ am_bot_4eps = 3.0809*am5 + 3.2521*am6 + 3.4234*am7
+ am_top_4eps = 4.0456*am5 + 4.2168*am6 + 4.3880*am7
+ e1_bot_4eps =                                        3.0809*dm6 + 3.2521*dm7 + 3.4234*dm8
+ e1_top_4eps =                                        3.8055*dm6 + 3.9768*dm7 + 4.1480*dm8
+ ma_bot_4eps =                                        4.7911*dm6 + 4.9624*dm7 + 5.1336*dm8
+ ma_top_4eps =                                        5.7558*dm6 + 5.9271*dm7 + 6.0983*dm8
*
+ m1_bot_fill = 0.00*am5 + 0.00*am6 + 0.00*am7 + 0.00*dm6 + 0.00*dm7 + 0.00*dm8
+ m1_top_fill = 0.29*am5 + 0.29*am6 + 0.29*am7 + 0.29*dm6 + 0.29*dm7 + 0.29*dm8
+ m2_bot_fill = 0.29*am5 + 0.29*am6 + 0.29*am7 + 0.29*dm6 + 0.29*dm7 + 0.29*dm8
+ m2_top_fill = 0.61*am5 + 0.61*am6 + 0.61*am7 + 0.61*dm6 + 0.61*dm7 + 0.61*dm8
+ m3_bot_fill = 0.00*am5 + 0.61*am6 + 0.61*am7 + 0.00*dm6 + 0.61*dm7 + 0.61*dm8
+ m3_top_fill = 0.00*am5 + 0.93*am6 + 0.93*am7 + 0.00*dm6 + 0.93*dm7 + 0.93*dm8
+ m4_bot_fill = 0.00*am5 + 0.00*am6 + 0.93*am7 + 0.00*dm6 + 0.00*dm7 + 0.93*dm8
+ m4_top_fill = 0.00*am5 + 0.00*am6 + 1.25*am7 + 0.00*dm6 + 0.00*dm7 + 1.25*dm8
+ mq_bot_fill = 0.61*am5 + 0.93*am6 + 1.25*am7 + 0.61*dm6 + 0.93*dm7 + 1.25*dm8
+ mq_top_fill = 1.16*am5 + 1.48*am6 + 1.80*am7 + 1.16*dm6 + 1.48*dm7 + 1.80*dm8
+ ly_bot_fill = 1.16*am5 + 1.48*am6 + 1.80*am7 + 1.16*dm6 + 1.48*dm7 + 1.80*dm8
+ ly_top_fill = 1.16*am5 + 1.48*am6 + 1.80*am7 + 1.16*dm6 + 1.48*dm7 + 1.80*dm8
+ am_bot_fill = 1.16*am5 + 1.48*am6 + 1.80*am7
+ am_top_fill = 1.16*am5 + 1.48*am6 + 1.80*am7
+ e1_bot_fill =                                  1.16*dm6 + 1.48*dm7 + 1.80*dm8
+ e1_top_fill =                                  1.16*dm6 + 1.48*dm7 + 1.80*dm8	 
+ ma_bot_fill =                                  1.16*dm6 + 1.48*dm7 + 1.80*dm8
+ ma_top_fill =                                  1.16*dm6 + 1.48*dm7 + 1.80*dm8
*
+ crossover_top_fill = m1_top_fill*(layer_top == 1)+m2_top_fill*(layer_top == 2)+m3_top_fill*(layer_top == 3)+m4_top_fill*(layer_top == 4)+mq_top_fill*(layer_top == 5)+ly_top_fill*(layer_top == 6)+am_top_fill*(layer_top == 7)+e1_top_fill*(layer_top == 8)+ma_top_fill*(layer_top == 9)
+ signal_top_fill = m1_top_fill*(layer_sig == 1)+m2_top_fill*(layer_sig == 2)+m3_top_fill*(layer_sig == 3)+m4_top_fill*(layer_sig == 4)+mq_top_fill*(layer_sig == 5)+ly_top_fill*(layer_sig == 6)+am_top_fill*(layer_sig == 7)+e1_top_fill*(layer_sig == 8)+ma_top_fill*(layer_sig == 9)
+ crossunder_top_fill = m1_top_fill*(layer_bot == 1)+m2_top_fill*(layer_bot == 2)+m3_top_fill*(layer_bot == 3)+m4_top_fill*(layer_bot == 4)+mq_top_fill*(layer_bot == 5)+ly_top_fill*(layer_bot == 6)+am_top_fill*(layer_bot == 7)+e1_top_fill*(layer_bot == 8)+ma_top_fill*(layer_bot == 9)
*
+ crossover_bot_fill = m1_bot_fill*(layer_top == 1)+m2_bot_fill*(layer_top == 2)+m3_bot_fill*(layer_top == 3)+m4_bot_fill*(layer_top == 4)+mq_bot_fill*(layer_top == 5)+ly_bot_fill*(layer_top == 6)+am_bot_fill*(layer_top == 7)+e1_bot_fill*(layer_top == 8)+ma_bot_fill*(layer_top == 9)
+ signal_bot_fill = m1_bot_fill*(layer_sig == 1)+m2_bot_fill*(layer_sig == 2)+m3_bot_fill*(layer_sig == 3)+m4_bot_fill*(layer_sig == 4)+mq_bot_fill*(layer_sig == 5)+ly_bot_fill*(layer_sig == 6)+am_bot_fill*(layer_sig == 7)+e1_bot_fill*(layer_sig == 8)+ma_bot_fill*(layer_sig == 9)
+ crossunder_bot_fill = m1_bot_fill*(layer_bot == 1)+m2_bot_fill*(layer_bot == 2)+m3_bot_fill*(layer_bot == 3)+m4_bot_fill*(layer_bot == 4)+mq_bot_fill*(layer_bot == 5)+ly_bot_fill*(layer_bot == 6)+am_bot_fill*(layer_bot == 7)+e1_bot_fill*(layer_bot == 8)+ma_bot_fill*(layer_bot == 9)
*
+ wfill = -1.0*(layer_sig == 1) + 0.9*(layer_sig == 2 || layer_sig == 3 || layer_sig == 4) + 1.2*(layer_sig == 5) + 0.0*(layer_sig == 6) + 0.0*(layer_sig == 7) + 0.0*(layer_sig == 8)+ 0.0*(layer_sig == 9)
+ sfill = -2.0*(layer_sig == 1) + 0.3*(layer_sig == 2 || layer_sig == 3 || layer_sig == 4) + 0.4*(layer_sig == 5) + -1.0*(layer_sig == 6) + -1.0*(layer_sig == 7) + -1.0*(layer_sig == 8) + -1.0*(layer_sig == 9)
+ sf2sh = -1.0*(layer_sig == 1) + 0.4*(layer_sig == 2 || layer_sig == 3 || layer_sig == 4) + 0.8*(layer_sig == 5) + -1.0*(layer_sig == 6) + -1.0*(layer_sig == 7) + -1.0*(layer_sig == 8) + -1.0*(layer_sig == 9)
+ denfillc = (denfill*(wfill - sfill)/(wfill*(layer_sig == 2 || layer_sig == 3 || layer_sig == 4 || layer_sig == 5) + -1.0*(layer_sig == 1 || layer_sig == 6 || layer_sig == 7 || layer_sig == 8 || layer_sig == 9))*(layer_sig == 2 || layer_sig == 3 || layer_sig == 4 || layer_sig == 5)) + 0.0*(layer_sig == 6 || layer_sig == 7 || layer_sig == 8 || layer_sig == 9)
* ===============================================
*
* Calculation of feedback parameters, including wire widths.
*
+ ELB = -0.0115*(layer_sig == 1) + 0.00*(layer_sig == 2 || layer_sig == 3 || layer_sig == 4) + -0.022*(layer_sig == 5) + 0.0000*(layer_sig == 6) + 0.00*(layer_sig == 7) + 0.00*(layer_sig == 8) + 0.00*(layer_sig == 9)
+ PLB =  0.0000*(layer_sig == 1) + 0.01*(layer_sig == 2 || layer_sig == 3 || layer_sig == 4) +  0.010*(layer_sig == 5) + 0.0625*(layer_sig == 6) + 0.00*(layer_sig == 8) + (-1*0.08)*(((layer_sig == 7) + (layer_sig == 9))*(s_MICRONS >= 12.5)) + (-1*(((0.028*s_MICRONS)-0.19)/2))*(((layer_sig == 7) + (layer_sig == 9))*(s_MICRONS < 12.5))
+ Wo = 1.2*(layer_sig == 1) + 1.8*(layer_sig == 2 || layer_sig == 3 || layer_sig == 4) + 2.4*(layer_sig == 5) + 0*(layer_sig == 6) + 0*(layer_sig == 7) + 0*(layer_sig == 8) + 0*(layer_sig == 9)
+ Wmin = 0.16*(layer_sig == 1) + 0.20*(layer_sig == 2 || layer_sig == 3 || layer_sig == 4) + 0.40*(layer_sig == 5) + 1.52*(layer_sig == 6) + 2.0*(layer_sig == 7) + 1.5*(layer_sig == 8) + 2.0*(layer_sig == 9)
+ Rsquare = m1rs*(layer_sig == 1) + m2rs*(layer_sig == 2) + m3rs*(layer_sig == 3) + m4rs*(layer_sig == 4) + mqrs*(layer_sig == 5) + lyrs*(layer_sig == 6) + amrs*(layer_sig == 7) + e1rs*(layer_sig == 8) + mars*(layer_sig == 9)
+ TCR = tm1rs*(layer_sig == 1) + tm2rs*(layer_sig == 2) + tm3rs*(layer_sig == 3) + tm4rs*(layer_sig == 4) + tmqrs*(layer_sig == 5) + tlyrs*(layer_sig == 6) + tamrs*(layer_sig == 7) + te1rs*(layer_sig == 8) + tmars*(layer_sig == 9)
*
+ Kslot = 0.5
+ MxPlaneLim = 50
*
+ ws = Wmin
*
+ w_c = w_MICRONS + 2*ELB + 2*PLB
*
+ Wlim = 1.4*(layer_sig == 1) + 1.4*(layer_sig == 2 || layer_sig == 3 || layer_sig == 4) + 2.4*(layer_sig == 5) + 0*(layer_sig == 6) + 0*(layer_sig == 7) + 0*(layer_sig == 8) + 0*(layer_sig == 9)
+ Cheese = 0.7*(layer_sig == 1) + 0.7*(layer_sig == 2 || layer_sig == 3 || layer_sig == 4) + 0.7*(layer_sig == 5) + 1*(layer_sig == 6) + 1*(layer_sig == 7) + 1*(layer_sig == 8) + 1*(layer_sig == 9)
+ superCheese = 0.52*(layer_sig == 1) + 0.52*(layer_sig == 2 || layer_sig == 3 || layer_sig == 4) + 0.53*(layer_sig == 5) + 1*(layer_sig == 6) + 1*(layer_sig == 7) + 1*(layer_sig == 8) + 1*(layer_sig == 9)
+ cheeseK =  (((Wlim != 0) || (w_MICRONS > Wo)) && (w_MICRONS > MxPlaneLim)) ? superCheese : Cheese
+ delta_Whole_CHEESING = ((Wlim == 0) || (w_MICRONS <= Wo)) ? 0 : (cheeseK - 1)*(w_c - Wlim)
*
+ delta_Whole = delta_Whole_CHEESING
*
+ w_eff = w_c + delta_Whole
*
+ Rpath = l*1e06*(Rsquare/w_eff)*(1 + TCR*(temp - Tref))
+ Rret = 0.5*Rpath
+ Rtot = Rpath + Rret
*
* End COMMON
* ===============================================
*
* Begin High-Frequency Limit and Static Capacitance Calculation
* Capacitance Model can be either "full plane" or "custom" which is determined
* by the variable "crosstype", where "crosstype" = 0 (full plane) or 1 (custom).
* If "full plane," then one of the crossing types "none/above/below/both" is
* invoked by the variable "plane", where "plane" = 0 (none), 1 (above), 2 (below),
* or 3 (both).
*
* Calculation of Capacitance for "full plane" crossing type (crosstype = "full plane")
*
* crossing type = none  -> signal-substrate (hc, th)
* crossing type = above -> signal-substrate (h_over, h_under = hc)
* crossing type = below -> signal-substrate (h_over, h_under)
* crossing type = both  -> signal-substrate (h_under, th)
*	hc = distance between signal layer bottom and top of substrate.
*	th = signal layer thickness.
*	h_over = distance between bottom of crossover layer and top of signal layer.
*	h_under = distance bottom of signal layer and top of crossunder layer.
*
* First, determine hc, h_fill, and th ...
+ hc = m1bot*(layer_sig == 1) + m2bot*(layer_sig == 2) + m3bot*(layer_sig == 3) + m4bot*(layer_sig == 4) + mqbot*(layer_sig == 5) + lybot*(layer_sig == 6) + ambot*(layer_sig == 7)+ e1bot*(layer_sig == 8) + mabot*(layer_sig == 9) - si_top
+ h_fill = m1_bot_fill*(layer_sig == 1) + m2_bot_fill*(layer_sig == 2) + m3_bot_fill*(layer_sig == 3) + m4_bot_fill*(layer_sig == 4) + mq_bot_fill*(layer_sig == 5) + ly_bot_fill*(layer_sig == 6) + am_bot_fill*(layer_sig == 7) + e1_bot_fill*(layer_sig == 8) + ma_bot_fill*(layer_sig == 9) - si_top
+ th = (m1top - m1bot)*(layer_sig == 1) + (m2top - m2bot)*(layer_sig == 2) + (m3top - m3bot)*(layer_sig == 3) + (m4top - m4bot)*(layer_sig == 4) + (mqtop - mqbot)*(layer_sig == 5) + (lytop - lybot)*(layer_sig == 6) + (amtop - ambot)*(layer_sig == 7) + (e1top - e1bot)*(layer_sig == 8) + (matop - mabot)*(layer_sig == 9)
*
+ h_by_eps = m1_bot_4eps*(layer_sig == 1) + m2_bot_4eps*(layer_sig == 2) + m3_bot_4eps*(layer_sig == 3) + m4_bot_4eps*(layer_sig == 4) + mq_bot_4eps*(layer_sig == 5) + ly_bot_4eps*(layer_sig == 6) + am_bot_4eps*(layer_sig == 7) + e1_bot_4eps*(layer_sig == 8) + ma_bot_4eps*(layer_sig == 9)
+ Epsilon_r = hc/h_by_eps
*
+ eps_side = m1_eps_side*(layer_sig == 1) + m2_eps_side*(layer_sig == 2) + m3_eps_side*(layer_sig == 3) + m4_eps_side*(layer_sig == 4) + mq_eps_side*(layer_sig == 5) + ly_eps_side*(layer_sig == 6) + am_eps_side*(layer_sig == 7) + e1_eps_side*(layer_sig == 8) + ma_eps_side*(layer_sig == 9)
+ eps_side_over = m1_eps_side_over*(layer_sig == 1) + m2_eps_side_over*(layer_sig == 2) + m3_eps_side_over*(layer_sig == 3) + m4_eps_side_over*(layer_sig == 4) + mq_eps_side_over*(layer_sig == 5) + ly_eps_side_over*(layer_sig == 6) + am_eps_side_over*(layer_sig == 7) + e1_eps_side_over*(layer_sig == 8) + ma_eps_side_over*(layer_sig == 9)
*
+ Epsilon_r_side = eps_side
+ Epsilon_r_ratio = Epsilon_r_side/Epsilon_r
*
+ crossover_bot = m1bot*(layer_top == 1) + m2bot*(layer_top == 2) + m3bot*(layer_top == 3) + m4bot*(layer_top == 4) + mqbot*(layer_top == 5) + lybot*(layer_top == 6) + ambot*(layer_top == 7) + e1bot*(layer_top == 8) + mabot*(layer_top == 9)
+ crossover_top = m1top*(layer_top == 1) + m2top*(layer_top == 2) + m3top*(layer_top == 3) + m4top*(layer_top == 4) + mqtop*(layer_top == 5) + lytop*(layer_top == 6) + amtop*(layer_top == 7) + e1top*(layer_top == 8) + matop*(layer_top == 9)
+ signal_bot = m1bot*(layer_sig == 1) + m2bot*(layer_sig == 2) + m3bot*(layer_sig == 3) + m4bot*(layer_sig == 4) + mqbot*(layer_sig == 5) + lybot*(layer_sig == 6) + ambot*(layer_sig == 7) + e1bot*(layer_sig == 8) + mabot*(layer_sig == 9)
+ signal_top = m1top*(layer_sig == 1) + m2top*(layer_sig == 2) + m3top*(layer_sig == 3) + m4top*(layer_sig == 4) + mqtop*(layer_sig == 5) + lytop*(layer_sig == 6) + amtop*(layer_sig == 7) + e1top*(layer_sig == 8) + matop*(layer_sig == 9)
+ crossunder_bot = m1bot*(layer_bot == 1) + m2bot*(layer_bot == 2) + m3bot*(layer_bot == 3) + m4bot*(layer_bot == 4) + mqbot*(layer_bot == 5) + lybot*(layer_bot == 6) + ambot*(layer_bot == 7) + e1bot*(layer_bot == 8) + mabot*(layer_bot == 9)
+ crossunder_top = m1top*(layer_bot == 1) + m2top*(layer_bot == 2) + m3top*(layer_bot == 3) + m4top*(layer_bot == 4) + mqtop*(layer_bot == 5) + lytop*(layer_bot == 6) + amtop*(layer_bot == 7) + e1top*(layer_bot == 8) + matop*(layer_bot == 9)
*
+ crossover_bot_4eps = m1_bot_4eps*(layer_top == 1) + m2_bot_4eps*(layer_top == 2) + m3_bot_4eps*(layer_top == 3) + m4_bot_4eps*(layer_top == 4) + mq_bot_4eps*(layer_top == 5) + ly_bot_4eps*(layer_top == 6) + am_bot_4eps*(layer_top == 7) + e1_bot_4eps*(layer_top == 8) + ma_bot_4eps*(layer_top == 9)
+ crossover_top_4eps = m1_top_4eps*(layer_top == 1) + m2_top_4eps*(layer_top == 2) + m3_top_4eps*(layer_top == 3) + m4_top_4eps*(layer_top == 4) + mq_top_4eps*(layer_top == 5) + ly_top_4eps*(layer_top == 6) + am_top_4eps*(layer_top == 7) + e1_top_4eps*(layer_top == 8) + ma_top_4eps*(layer_top == 9)
+ signal_bot_4eps = m1_bot_4eps*(layer_sig == 1) + m2_bot_4eps*(layer_sig == 2) + m3_bot_4eps*(layer_sig == 3) + m4_bot_4eps*(layer_sig == 4) + mq_bot_4eps*(layer_sig == 5) + ly_bot_4eps*(layer_sig == 6) + am_bot_4eps*(layer_sig == 7) + e1_bot_4eps*(layer_sig == 8) + ma_bot_4eps*(layer_sig == 9)
+ signal_top_4eps = m1_top_4eps*(layer_sig == 1) + m2_top_4eps*(layer_sig == 2) + m3_top_4eps*(layer_sig == 3) + m4_top_4eps*(layer_sig == 4) + mq_top_4eps*(layer_sig == 5) + ly_top_4eps*(layer_sig == 6) + am_top_4eps*(layer_sig == 7) + e1_top_4eps*(layer_sig == 8) + ma_top_4eps*(layer_sig == 9)
+ crossunder_bot_4eps = m1_bot_4eps*(layer_bot == 1) + m2_bot_4eps*(layer_bot == 2) + m3_bot_4eps*(layer_bot == 3) + m4_bot_4eps*(layer_bot == 4) + mq_bot_4eps*(layer_bot == 5) + ly_bot_4eps*(layer_bot == 6) + am_bot_4eps*(layer_bot == 7) + e1_bot_4eps*(layer_bot == 8) + ma_bot_4eps*(layer_bot == 9)
+ crossunder_top_4eps = m1_top_4eps*(layer_bot == 1) + m2_top_4eps*(layer_bot == 2) + m3_top_4eps*(layer_bot == 3) + m4_top_4eps*(layer_bot == 4) + mq_top_4eps*(layer_bot == 5) + ly_top_4eps*(layer_bot == 6) + am_top_4eps*(layer_bot == 7) + e1_top_4eps*(layer_bot == 8) + ma_top_4eps*(layer_bot == 9)
*
+ h_under = (signal_bot - crossunder_top)*(plane == 2 || plane == 3) + (hc)*(plane == 0 || plane == 1)
+ h_fill_under = (signal_bot_fill - crossunder_top_fill)*(plane == 2 || plane == 3) + (0.0)*(plane == 0 || plane == 1)
+ h_by_eps_under = (signal_bot_4eps - crossunder_top_4eps)*(plane == 2 || plane == 3) + (1.0)*(plane == 0 || plane == 1)
+ Epsilon_r_under = (h_under/h_by_eps_under)*(plane == 2 || plane == 3) + (Epsilon_r)*(plane == 0 || plane == 1)
*
+ h_over = (crossover_bot - signal_top)*(plane == 1 || plane == 3) + (1.0)*(plane == 0 || plane == 2)
+ h_fill_over = (crossover_bot_fill - signal_top_fill)*(plane == 1 || plane == 3) + (0.0)*(plane == 0 || plane == 2)
+ h_by_eps_over = (crossover_bot_4eps - signal_top_4eps)*(plane == 1 || plane == 3) + (1.0)*(plane == 0 || plane == 2)
+ Epsilon_r_over = (h_over/h_by_eps_over)*(plane == 1 || plane == 3) + (eps_side_over)*(plane == 0 || plane == 2) 
*
* Begin Ltot calculation for the nominal case ************************************************
* High-Frequency Limit Inductance Calculation for Coupled-Wire Coplanar Waveguide without Substrate ...
* Even Mode Capacitance ...
+ X1_IND = 1.1051
+ X2_IND = 0.9669
+ X3_IND = 1.0002
*
+ Ccme =  Epsilon_r*E0*( 2.0*X1_IND*Epsilon_r_ratio*(th/s_MICRONS) + 4.0*X2_IND*(1.0/(pi - 2.0))*log(0.5*pi) + 4.0*X3_IND*(1.0/pi)*log(1.0 + 2.0*w_MICRONS/s_MICRONS) )
+ Cevena = 0.5*l*Ccme*(1.0 + 0.025*d_MICRONS/w_MICRONS)
* Odd Mode and Mutual Capacitance (from common and single modes)
+ Y1_IND = 0.8784
+ Y2_IND = 1.3139
+ Y3_IND = 1.3495 
+ Y4_IND = 1.0033
+ Y5_IND = 1.0033
+ Y6_IND = 1.2819 
*
+ Ccmo = Epsilon_r*E0*( 2.0*Y1_IND*Epsilon_r_ratio*(th/s_MICRONS) + 4.0*Y2_IND*(1.0/(pi - 2.0))*log(0.5*pi) + 4.0*Y3_IND*(1.0/pi)*log(1.0 + 2.0*w_MICRONS/s_MICRONS) )
+ Cleft = Epsilon_r*E0*( 2.0*Y4_IND* Epsilon_r_ratio*(th/s_MICRONS) + 4.0*Y5_IND*(1.0/(pi - 2.0))*log(0.5*pi) + 4.0*Y6_IND*(1.0/pi)*log(1.0 + w_MICRONS/s_MICRONS) )
+ Cright = Epsilon_r*E0*( 2.0*Y4_IND*Epsilon_r_ratio*(th/d_MICRONS) + 4.0*Y5_IND*(1.0/(pi - 2.0))*log(0.5*pi) + 4.0*Y6_IND*(1.0/pi)*log(1.0 + w_MICRONS/d_MICRONS) )
+ Csmo = 0.5*(Cleft + Cright)
+ Cm = Csmo - 0.5*Ccmo
+ Codda = l*(0.5*Ccmo + 2.0*Cm)
+ Cca0 = l*Cm
+ Cca = Cca0*(0.5*(Codda - Cevena) < 0) + 0.5*(Codda - Cevena)*(0.5*(Codda - Cevena) >= 0)
* Calculate time-of-flight ...
+ tof = l*sqrt(Epsilon_r)/3e8
*
* Calculate total inductance ...
+ Ltot_NOM = tof*tof*0.5*(Codda+Cevena)/(Codda*Cevena)
*
* Calculate Inductive Coupling Coefficient ... 
+ Mtot = tof*tof*Cca/(Codda*Cevena)
+ K_NOM = Mtot/Ltot_NOM
*
* End Ltot Calculation ***********************************************************************
*
* Next, calculate maximum length for given maximum bandwidth ...
+ lmax = (100.0/bwmax)*360.0
*
* High-Frequency Limit Capacitance Calculation for Coupled-Wires Coplanar Waveguide with Substrate ...
* First, NO CROSSING LINES ...
* Even Mode Capacitance ...
+ X1_CAP_NONE_EVEN = 1.2561
+ X2_CAP_NONE_EVEN = 1.0439
+ X3_CAP_NONE_EVEN = 0.8908
*
+ C1_CAP_NONE_EVEN = X1_CAP_NONE_EVEN*Epsilon_r_side*E0*th/s_MICRONS
+ C2_CAP_NONE_EVEN = X2_CAP_NONE_EVEN*Epsilon_r*E0*(1.0/(pi - 2.0))*log(0.5*pi)
+ C3_CAP_NONE_EVEN = X3_CAP_NONE_EVEN*Epsilon_r*E0*(1.0/pi)*log(1.0 + 2.0*w_MICRONS/s_MICRONS)
*
+ Ccm_1_NONE_EVEN = 2.0*C1_CAP_NONE_EVEN + 4.0*C2_CAP_NONE_EVEN + 4.0*C3_CAP_NONE_EVEN
*
+ C31_2_NONE_EVEN = Epsilon_r*E0*(1.0/pi)*log(2.0*hc/s_MICRONS)
+ x0_2_NONE_EVEN = 0.5*(0.5*(w_MICRONS + s_MICRONS) + hc)
+ h0_2_NONE_EVEN = sqrt(sqrt((x0_2_NONE_EVEN*x0_2_NONE_EVEN - hc*hc)*(x0_2_NONE_EVEN*x0_2_NONE_EVEN - hc*hc))) 
+ Epsilon_rs_2_NONE_EVEN = (hc*Epsilon_r + h0_2_NONE_EVEN*Epsilon_s)/(hc + h0_2_NONE_EVEN)
+ C32_2_NONE_EVEN =  Epsilon_rs_2_NONE_EVEN*E0*(1.0/pi)*log((w_MICRONS + s_MICRONS)/(2.0*hc))
+ C3s_2_NONE_EVEN = X3_CAP_NONE_EVEN*(C31_2_NONE_EVEN + C32_2_NONE_EVEN)
+ Ccm_2_NONE_EVEN = 2.0*C1_CAP_NONE_EVEN + 4.0*C2_CAP_NONE_EVEN + 2.0*(C3_CAP_NONE_EVEN + C3s_2_NONE_EVEN)
*
+ C21_3_NONE_EVEN = Epsilon_r*E0*(1.0/(pi - 2.0))*log(1.0+(pi - 2.0)*hc/s_MICRONS) 
+ h0_3_NONE_1_EVEN = 0.5*(0.5*s_MICRONS - hc)
+ Epsilon_rs_3_NONE_1_EVEN = (hc*Epsilon_r + 0.75*h0_3_NONE_1_EVEN*Epsilon_s)/(hc + h0_3_NONE_1_EVEN)